Version 4
SHEET 1 1144 744
WIRE -400 -176 -512 -176
WIRE -128 -176 -320 -176
WIRE 336 -144 320 -144
WIRE -512 -64 -512 -176
WIRE 320 -64 320 -144
WIRE 352 -64 320 -64
WIRE 896 -48 640 -48
WIRE 576 64 368 64
WIRE 640 80 640 -48
WIRE 688 80 640 80
WIRE 864 80 768 80
WIRE -512 112 -512 16
WIRE -256 112 -512 112
WIRE -128 112 -128 -176
WIRE -128 112 -256 112
WIRE 192 112 144 112
WIRE 576 112 576 64
WIRE 192 128 192 112
WIRE 224 128 192 128
WIRE 352 128 352 -64
WIRE 352 128 320 128
WIRE 960 128 960 80
WIRE 368 144 368 64
WIRE 448 144 368 144
WIRE 896 144 896 -48
WIRE 928 144 896 144
WIRE -256 160 -256 112
WIRE 224 160 -16 160
WIRE 448 160 448 144
WIRE 1056 160 992 160
WIRE 928 176 912 176
WIRE 224 192 128 192
WIRE 368 192 368 144
WIRE 368 192 320 192
WIRE 224 224 128 224
WIRE 368 224 320 224
WIRE 400 224 368 224
WIRE 576 224 576 192
WIRE 640 224 640 80
WIRE 640 224 576 224
WIRE 672 224 640 224
WIRE 800 224 752 224
WIRE 864 224 864 80
WIRE 576 256 576 224
WIRE 912 256 912 176
WIRE 960 288 960 192
WIRE 400 304 400 224
WIRE 448 304 448 240
WIRE 448 304 400 304
WIRE 368 368 368 224
WIRE 576 368 576 336
WIRE 576 368 368 368
WIRE 240 560 240 528
WIRE 416 560 416 528
WIRE 240 704 240 640
WIRE 416 704 416 640
FLAG 912 256 0
FLAG 240 704 0
FLAG 960 80 Vp
FLAG 240 528 Vp
FLAG 416 704 0
FLAG 416 528 Vn
FLAG 960 288 Vn
FLAG 128 192 Vp
FLAG 128 224 Vn
FLAG 336 -144 Vout
IOPIN 336 -144 Out
FLAG -256 160 0
SYMBOL conditioner 272 176 R0
SYMATTR InstName U1
SYMBOL res 432 144 R0
SYMATTR InstName Rg
SYMATTR Value 6.98k
SYMBOL res 560 96 R0
SYMATTR InstName R2
SYMATTR Value 22k
SYMBOL res 560 240 R0
SYMATTR InstName R3
SYMATTR Value 22k
SYMBOL res 768 208 R90
WINDOW 0 0 56 VBottom 2
WINDOW 3 32 56 VTop 2
SYMATTR InstName R1
SYMATTR Value 10k
SYMBOL cap 864 208 R90
WINDOW 0 0 32 VBottom 2
WINDOW 3 32 32 VTop 2
SYMATTR InstName C1
SYMATTR Value 0.1µ
SYMBOL res 784 64 R90
WINDOW 0 0 56 VBottom 2
WINDOW 3 32 56 VTop 2
SYMATTR InstName R4
SYMATTR Value 1Meg
SYMBOL OpAmps\\OP27 960 96 R0
SYMATTR InstName U2
SYMBOL voltage 240 544 R0
WINDOW 123 0 0 Left 0
WINDOW 39 0 0 Left 0
SYMATTR InstName V1
SYMATTR Value 5V
SYMBOL voltage 416 544 R0
WINDOW 123 0 0 Left 0
WINDOW 39 0 0 Left 0
SYMATTR InstName V2
SYMATTR Value -5V
SYMBOL res 1152 144 R90
WINDOW 0 0 56 VBottom 2
WINDOW 3 32 56 VTop 2
SYMATTR InstName Rx3
SYMATTR Value 220k
SYMBOL res 0 144 R90
WINDOW 0 0 56 VBottom 2
WINDOW 3 32 56 VTop 2
SYMATTR InstName Rx2
SYMATTR Value 220k
SYMBOL res 160 96 R90
WINDOW 0 0 56 VBottom 2
WINDOW 3 32 56 VTop 2
SYMATTR InstName Rx1
SYMATTR Value 220k
SYMBOL voltage -512 -80 R0
WINDOW 123 0 0 Left 0
WINDOW 39 0 0 Left 0
SYMATTR InstName RA
SYMATTR Value PWL file=D:\MI-Detection\samples\converted\test_signal0.txt
SYMBOL res -304 -192 R90
WINDOW 0 0 56 VBottom 2
WINDOW 3 32 56 VTop 2
SYMATTR InstName R5
SYMATTR Value 1k
TEXT -544 728 Left 2 !.tran 1
